*SRC=DMN2075U;DI_DMN2075U;MOSFETs N;Enh;20.0V 4.20A 38.0mohms  Diodes Inc MOSFET
*SYM=POWMOSN
.SUBCKT DI_DMN2075U   10 20 30
*     TERMINALS:  D  G  S
M1   1  2  3  3  DMOS L=1U W=1U
RD  10  1  17.0m
RS  40  3  1.95m
RG  20  2  35.7
CGS  2  3  536p
EGD 12  0  2  1  1
VFB 14  0  0
FFB  2  1  VFB  1
CGD 13 14  409p
R1  13  0  1.00
D1  12 13  DLIM
DDG 15 14  DCGD
R2  12 15  1.00
D2  15  0  DLIM
DSD  3 10  DSUB
LS  30 40  7.50n
.MODEL DMOS NMOS(LEVEL=3 VMAX=41.7k THETA=80.0m
+ ETA=2.00m VTO=1.00 KP=117
.MODEL DCGD D (CJO=409p VJ=0.600 M=0.680
.MODEL DSUB D (IS=17.4n N=1.50 RS=59.5m BV=20.0
+ CJO=97.0p VJ=0.800 M=0.420 TT=217n
.MODEL DLIM D (IS=100U)
.ENDS