Version 4
SHEET 1 3716 740
WIRE 1728 -144 1552 -144
WIRE 2352 -144 1728 -144
WIRE 2432 -144 2352 -144
WIRE 1552 -80 1552 -144
WIRE 272 -64 160 -64
WIRE 880 -64 272 -64
WIRE 272 -32 272 -64
WIRE 880 -32 880 -64
WIRE 1728 -32 1728 -144
WIRE 2352 16 2352 -144
WIRE 368 48 352 48
WIRE 880 64 880 32
WIRE 880 64 528 64
WIRE 928 64 880 64
WIRE 1088 64 1008 64
WIRE 224 80 144 80
WIRE 272 80 272 48
WIRE 368 80 272 80
WIRE 272 96 272 80
WIRE 880 96 880 64
WIRE 2432 96 2432 -144
WIRE 224 112 224 80
WIRE 1728 112 1728 48
WIRE 1952 112 1728 112
WIRE 1984 112 1952 112
WIRE 2080 112 2048 112
WIRE 2352 112 2352 96
WIRE 2352 112 2080 112
WIRE 2384 112 2352 112
WIRE 1728 128 1728 112
WIRE 1824 144 1776 144
WIRE 2736 144 2688 144
WIRE 208 160 144 160
WIRE 224 160 208 160
WIRE 2080 176 2080 112
WIRE 208 192 208 160
WIRE 208 192 160 192
WIRE 272 192 272 176
WIRE 272 192 208 192
WIRE 352 192 352 48
WIRE 352 192 272 192
WIRE 880 192 880 160
WIRE 880 192 352 192
WIRE 2688 208 2688 144
WIRE 1728 224 1728 208
WIRE 1776 224 1776 192
WIRE 1776 224 1728 224
WIRE 1824 224 1776 224
WIRE 2176 224 2144 224
WIRE 2192 224 2176 224
WIRE 2432 224 2432 192
WIRE 2432 224 2272 224
WIRE 2464 224 2432 224
WIRE 2528 224 2464 224
WIRE 2640 224 2528 224
WIRE 160 240 160 192
WIRE 2528 240 2528 224
WIRE 2464 272 2464 224
WIRE 2176 336 2176 224
WIRE 2288 336 2176 336
WIRE 2688 336 2688 288
WIRE 1952 352 1952 112
WIRE 2016 352 1952 352
WIRE 2464 352 2464 336
WIRE 2528 352 2528 320
WIRE 2528 352 2464 352
WIRE 2640 352 2640 272
WIRE 2640 352 2528 352
WIRE 1552 624 1552 0
WIRE 1728 624 1728 224
WIRE 1728 624 1552 624
WIRE 2080 624 2080 272
WIRE 2080 624 1728 624
WIRE 2528 624 2528 352
WIRE 2528 624 2080 624
WIRE 2688 624 2688 416
WIRE 2688 624 2528 624
WIRE 1552 704 1552 624
FLAG 2016 352 Sens
FLAG 1552 704 0
FLAG 2288 336 _OFF
FLAG 2464 224 OUT
FLAG 160 240 0
FLAG 1088 64 _OFF
FLAG 2736 144 3.3_supply
FLAG 160 -64 3.3_supply
SYMBOL voltage 1552 -96 R0
WINDOW 0 32 56 VTop 2
WINDOW 3 -32 56 VBottom 2
WINDOW 123 0 0 Left 2
WINDOW 39 60 56 VTop 2
SYMATTR InstName V5
SYMATTR Value 6
SYMBOL res 2336 0 R0
SYMATTR InstName R5
SYMATTR Value 100k
SYMBOL sw 1728 224 R180
SYMATTR InstName S3
SYMBOL voltage 1824 128 R0
WINDOW 0 32 56 VTop 2
WINDOW 3 -57 148 Bottom 2
WINDOW 123 0 0 Left 2
WINDOW 39 0 0 Left 2
SYMATTR InstName V6
SYMATTR Value PULSE(-1 1 100m 0 0 10m 50m 2)
SYMBOL pmos 2384 192 M180
SYMATTR InstName M2
SYMATTR Value IRF7220
SYMBOL res 2512 224 R0
SYMATTR InstName R_Last
SYMATTR Value 10
SYMBOL npn 2144 176 M0
SYMATTR InstName Q2
SYMATTR Value BC547B
SYMBOL res 2288 208 R90
WINDOW 0 0 56 VBottom 2
WINDOW 3 32 56 VTop 2
SYMATTR InstName R10
SYMATTR Value 100k
SYMBOL schottky 2048 96 R90
WINDOW 0 0 32 VBottom 2
WINDOW 3 32 32 VTop 2
SYMATTR InstName D4
SYMATTR Value 1N5817
SYMATTR Description Diode
SYMATTR Type diode
SYMBOL 74hc125 448 0 R0
WINDOW 39 -48 140 Left 2
WINDOW 38 -48 168 Left 2
SYMATTR SpiceLine VCC=3.3_supply  SPEED=1.0  TRIPDT=1e-9
SYMATTR InstName U1
SYMBOL schottky 896 32 R180
WINDOW 0 24 64 Left 2
WINDOW 3 24 0 Left 2
SYMATTR InstName D1
SYMATTR Value 1N5817
SYMATTR Description Diode
SYMATTR Type diode
SYMBOL schottky 896 160 R180
WINDOW 0 24 64 Left 2
WINDOW 3 24 0 Left 2
SYMATTR InstName D2
SYMATTR Value 1N5817
SYMATTR Description Diode
SYMATTR Type diode
SYMBOL res 1024 48 R90
WINDOW 0 0 56 VBottom 2
WINDOW 3 32 56 VTop 2
SYMATTR InstName R3
SYMATTR Value 1
SYMBOL sw 2688 304 M180
SYMATTR InstName S1
SYMATTR Value SW_A
SYMBOL voltage 2688 320 R0
WINDOW 0 32 56 VTop 2
WINDOW 3 -32 56 VBottom 2
WINDOW 123 0 0 Left 2
WINDOW 39 0 0 Left 2
SYMATTR InstName V2
SYMATTR Value 3.3
SYMBOL res 256 -48 R0
SYMATTR InstName R2
SYMATTR Value 10k
SYMBOL sw 272 192 M180
SYMATTR InstName S2
SYMBOL voltage 144 64 R0
WINDOW 0 32 56 VTop 2
WINDOW 3 -57 148 Bottom 2
WINDOW 123 0 0 Left 2
WINDOW 39 0 0 Left 2
SYMATTR InstName V1
SYMATTR Value PULSE(-1 1 500m 0 0 10m)
SYMBOL res 1712 -48 R0
SYMATTR InstName R4
SYMATTR Value 100k
SYMBOL cap 2448 272 R0
SYMATTR InstName C1
SYMATTR Value 10µ
SYMATTR SpiceLine Rser=1k
TEXT 280 424 Left 2 !.tran 1
TEXT 280 456 Left 2 !.inc DMN2075U.mod
TEXT 280 488 Left 2 !.model SW SW()
TEXT 280 520 Left 2 !.inc 74hc.lib
TEXT 280 552 Left 2 !.model SW_A SW(Vt=5)
