Version 4
SHEET 1 3716 740
WIRE 1248 -256 928 -256
WIRE 1456 -256 1312 -256
WIRE 2048 -256 1456 -256
WIRE 2192 -256 2048 -256
WIRE 2560 -256 2192 -256
WIRE 1456 -224 1456 -256
WIRE 2048 -224 2048 -256
WIRE 2560 -224 2560 -256
WIRE 1408 -208 1328 -208
WIRE 640 -160 384 -160
WIRE 1264 -160 640 -160
WIRE 1408 -160 1360 -160
WIRE 2192 -144 2192 -256
WIRE 2208 -144 2192 -144
WIRE 2560 -128 2560 -160
WIRE 2560 -128 2368 -128
WIRE 2592 -128 2560 -128
WIRE 2752 -128 2672 -128
WIRE 1264 -112 1264 -160
WIRE 1456 -112 1456 -144
WIRE 2000 -112 1824 -112
WIRE 2048 -112 2048 -144
WIRE 2208 -112 2048 -112
WIRE 384 -96 384 -160
WIRE 2048 -96 2048 -112
WIRE 2000 -80 2000 -112
WIRE 2560 -64 2560 -128
WIRE 928 -48 928 -256
WIRE 2000 -32 1824 -32
WIRE 1008 0 992 0
WIRE 1072 0 1008 0
WIRE 1264 0 1264 -32
WIRE 1264 0 1152 0
WIRE 1328 0 1328 -208
WIRE 1328 0 1264 0
WIRE 1392 0 1328 0
WIRE 1456 0 1456 -32
WIRE 1456 0 1392 0
WIRE 1824 0 1824 -32
WIRE 1824 0 1456 0
WIRE 2048 0 2048 -16
WIRE 2048 0 1824 0
WIRE 2560 0 2048 0
WIRE 640 64 640 -160
WIRE 592 80 512 80
WIRE 1008 80 1008 0
WIRE 1136 80 1008 80
WIRE 1264 128 1264 0
WIRE 592 160 592 128
WIRE 592 160 512 160
WIRE 640 208 640 144
WIRE 784 208 640 208
WIRE 848 208 784 208
WIRE 928 208 928 48
WIRE 928 208 912 208
WIRE 1184 208 928 208
WIRE 1216 208 1184 208
WIRE 784 288 784 208
WIRE 1184 288 1184 208
WIRE 1264 368 1264 224
WIRE 1264 368 1184 368
WIRE 784 416 784 368
WIRE 976 416 784 416
WIRE 784 448 784 416
WIRE 384 608 384 -16
WIRE 592 608 592 160
WIRE 592 608 384 608
WIRE 784 608 784 528
WIRE 784 608 592 608
WIRE 1264 608 1264 368
WIRE 1264 608 784 608
WIRE 1360 608 1360 -160
WIRE 1360 608 1264 608
WIRE 384 688 384 608
FLAG 976 416 Sens
FLAG 384 688 0
FLAG 1136 80 _OFF
FLAG 1392 0 OUT
FLAG 2752 -128 _OFF
SYMBOL voltage 384 -112 R0
WINDOW 0 32 56 VTop 2
WINDOW 3 -32 56 VBottom 2
WINDOW 123 0 0 Left 2
WINDOW 39 0 0 Left 2
SYMATTR InstName V5
SYMATTR Value 7
SYMBOL res 1168 272 R0
SYMATTR InstName R5
SYMATTR Value 10k
SYMBOL sw 640 160 M180
SYMATTR InstName S3
SYMBOL voltage 512 64 M0
WINDOW 0 32 56 VTop 2
WINDOW 3 -20 -12 Bottom 2
WINDOW 123 0 0 Left 2
WINDOW 39 0 0 Left 2
SYMATTR InstName V6
SYMATTR Value PULSE(-1 1 100m 0 0 10m 50m 2)
SYMBOL voltage 1456 -128 R0
WINDOW 0 32 56 VTop 2
WINDOW 3 -32 56 VBottom 2
WINDOW 123 0 0 Left 2
WINDOW 39 0 0 Left 2
SYMATTR InstName V2
SYMATTR Value 3.3
SYMBOL res 768 272 R0
SYMATTR InstName R1
SYMATTR Value 18k
SYMBOL nmos 1216 128 R0
SYMATTR InstName M1
SYMATTR Value DI_DMN2075U
SYMATTR Prefix X
SYMBOL pnp 992 48 R180
SYMATTR InstName Q1
SYMATTR Value BC557C
SYMBOL res 1248 -128 R0
SYMATTR InstName R_Last
SYMATTR Value 10
SYMBOL res 1168 -16 R90
WINDOW 0 0 56 VBottom 2
WINDOW 3 32 56 VTop 2
SYMATTR InstName R7
SYMATTR Value 10k
SYMBOL schottky 848 224 R270
WINDOW 0 32 32 VTop 2
WINDOW 3 0 32 VBottom 2
SYMATTR InstName D3
SYMATTR Value 1N5817
SYMATTR Description Diode
SYMATTR Type diode
SYMBOL res 768 432 R0
SYMATTR InstName R4
SYMATTR Value 12k
SYMBOL schottky 2576 -160 R180
WINDOW 0 24 64 Left 2
WINDOW 3 24 0 Left 2
SYMATTR InstName D4
SYMATTR Value 1N5817
SYMATTR Description Diode
SYMATTR Type diode
SYMBOL schottky 2576 0 R180
WINDOW 0 24 64 Left 2
WINDOW 3 24 0 Left 2
SYMATTR InstName D6
SYMATTR Value 1N5817
SYMATTR Description Diode
SYMATTR Type diode
SYMBOL 74hc125 2288 -192 R0
WINDOW 39 -48 140 Left 2
WINDOW 38 -48 168 Left 2
SYMATTR InstName U2
SYMATTR SpiceLine VCC=3.3_supply  SPEED=1.0  TRIPDT=1e-9
SYMATTR SpiceModel VCC OUT
SYMBOL res 2688 -144 R90
WINDOW 0 0 56 VBottom 2
WINDOW 3 32 56 VTop 2
SYMATTR InstName R8
SYMATTR Value 1
SYMBOL sw 1456 -240 R0
SYMATTR InstName S1
SYMATTR Value SW_A
SYMBOL schottky 1312 -272 R90
WINDOW 0 0 32 VBottom 2
WINDOW 3 32 32 VTop 2
SYMATTR InstName D1
SYMATTR Value 1N5817
SYMATTR Description Diode
SYMATTR Type diode
SYMBOL res 2032 -240 R0
SYMATTR InstName R2
SYMATTR Value 10k
SYMBOL voltage 1824 -128 M0
WINDOW 0 32 56 VTop 2
WINDOW 3 -20 -12 Bottom 2
WINDOW 123 0 0 Left 2
WINDOW 39 0 0 Left 2
SYMATTR InstName V1
SYMATTR Value PULSE(-1 1 500m 0 0 10m)
SYMBOL sw 2048 0 M180
SYMATTR InstName S2
TEXT -424 392 Left 2 !.tran 1
TEXT -424 424 Left 2 !.inc DMN2075U.mod
TEXT -424 456 Left 2 !.model SW SW()
TEXT -424 488 Left 2 !.inc 74hc.lib
TEXT -424 520 Left 2 !.model SW_A SW(Vt=-2.5)
